24
995Marvin  12300703363D
C -0.7143000000   -0.3515000000   0.0000000000
C 0.7143000000   -0.3515000000   0.0000000000
C -1.4186000000   0.8938000000   0.0000000000
C 1.4186000000   0.8938000000   0.0000000000
C -0.7007000000   2.1076000000   0.0000000000
C 0.7007000000   2.1076000000   0.0000000000
C -1.5025000000   -1.5339000000   0.0000000000
C 1.5025000000   -1.5339000000   0.0000000000
C -2.8335000000   0.9243000000   0.0000000000
C 2.8335000000   0.9243000000   0.0000000000
C -2.9061000000   -1.5015000000   0.0000000000
C 2.9061000000   -1.5015000000   0.0000000000
C -3.5731000000   -0.2698000000   0.0000000000
C 3.5731000000   -0.2698000000   0.0000000000
H -1.1845000000   3.0108000000   0.0000000000
H 1.1845000000   3.0108000000   0.0000000000
H -1.0929000000   -2.4665000000   0.0000000000
H 1.0929000000   -2.4665000000   0.0000000000
H -3.3497000000   1.8084000000   0.0000000000
H 3.3497000000   1.8084000000   0.0000000000
H -3.4392000000   -2.3749000000   0.0000000000
H 3.4392000000   -2.3749000000   0.0000000000
H -4.5952000000   -0.2466000000   0.0000000000
H 4.5952000000   -0.2466000000   0.0000000000
