31
565184Marvin  12300719093D
O 1.0511471993   2.1260724548   0.1047212774
O 4.4877759150   -0.7141403753   1.3229492200
O -3.2506761596   0.9541549589   -1.2720023338
O -1.7075457718   -1.9112708907   -0.1542664094
N -0.7547451372   0.0949004047   -0.0154686642
C 0.5076960026   -0.1418816772   0.3896640475
C 1.4149049281   0.9524137485   0.4315205520
C 1.0168678164   -1.4123786998   0.7651293716
C 2.7636971645   0.7656329814   0.8152425973
C 3.2552800159   -0.5215103136   1.1004878571
C 2.3650573663   -1.6085593235   1.1023784198
C -1.7737374450   -0.6923963378   -0.2358721486
C -3.0115105093   -0.2022023123   -0.6039408223
C -4.2438619659   -0.8209066895   -0.3739667563
C -5.2344616376   -0.0299421406   -0.9323426716
C -4.5842307866   1.0625960010   -1.4891842555
C 1.3146808426   2.7511858607   -1.0477360183
C 5.3908688515   -1.0689750270   0.4015092501
H 0.4354890236   -2.2469245985   0.7970868763
H 3.4033281838   1.5639298244   0.8656315806
H -0.9407925936   0.9992398292   -0.1701706015
H 2.6969224402   -2.5482733577   1.3357665657
H -4.3999581564   -1.7016720337   0.1210130492
H -6.2380907978   -0.2200341716   -0.9308004505
H -5.0442081884   1.8261988621   -1.9869499839
H 0.9571989480   3.7780696873   -0.9781231480
H 2.3832414524   2.7801801663   -1.2765787887
H 0.7903834352   2.2609986105   -1.8710529004
H 6.3479184692   -1.2369756905   0.8942575695
H 5.5237461023   -0.2784669508   -0.3413807738
H 5.1112271629   -1.9924444338   -0.1134481469
