510
 generated by VMD
 S         4.239603       10.189193        6.095690
 O         9.705838        9.782650        9.410563
 O         6.975299        6.989429       12.625648
 O         6.334755        8.765404        5.716653
 N         7.814954        9.460890        7.564972
 C         7.593424        8.954927        8.825916
 C         8.619809        9.031514        9.778903
 C         6.366796        8.393175        9.245216
 C         8.477879        8.362161       11.009998
 C         7.302601        7.636883       11.338923
 C         6.248060        7.672493       10.456903
 C         6.878953        9.828450        6.407772
 C         5.710489       10.590168        6.920459
 C         5.441430       11.361268        8.013985
 C         4.079848       11.641489        8.282114
 C         3.339097       11.068977        7.155207
 C        10.753727        9.987029       10.393896
 C         7.971857        7.026072       13.698709
 H         5.491937        8.305798        8.590080
 H         9.359303        8.288568       11.780978
 H         8.762960        9.791170        7.472343
 H         5.247227        7.210420       10.656203
 H         6.240182       11.889926        8.594295
 H         3.621572       12.123224        9.190051
 H         2.299689       11.007044        7.045803
 H        11.116437        9.002389       10.748852
 H        10.513663       10.465903       11.385675
 H        11.535306       10.550611        9.915243
 H         8.876930        6.407691       13.537686
 H         8.429373        8.009874       13.942279
 H         7.377664        6.673432       14.590548
 O         5.732469        4.231524        4.571376
 H         6.558640        4.669137        4.782054
 H         5.684858        3.421823        5.126351
 O        19.101154       16.757481        0.930555
 H        19.982309       16.605503        1.364176
 H        18.408804       16.222969        1.380809
 O        -0.287201        9.877620        9.991123
 H        -0.211483       10.499746        9.242406
 H         0.545333        9.351144        9.943994
 O         8.629610        7.054072        0.400428
 H         7.811233        7.583679        0.485079
 H         8.262391        6.209816       -0.002533
 O        13.934175        0.160060        7.318135
 H        13.490391       -0.618204        7.632700
 H        14.877762        0.018138        7.526171
 O        -2.087638       12.948065        5.187472
 H        -1.581511       13.148860        5.927877
 H        -2.187076       11.985741        4.965493
 O         8.570894       -0.531276        9.948402
 H         7.934935        0.106103        9.508823
 H         8.022547       -1.416780       10.038916
 O        -3.807601       15.784310       14.041468
 H        -3.264391       16.563435       13.781433
 H        -3.461838       15.009931       13.601673
 O         9.406863        5.542781       10.058910
 H        10.034924        4.949655       10.600409
 H         8.851498        6.061534       10.672833
 O         3.334446       -0.070189       -2.983823
 H         2.490816        0.437939       -2.847364
 H         4.043214        0.459406       -2.569087
 O        -0.678072        7.585916        5.142492
 H         0.026979        7.452446        4.478236
 H        -1.476503        7.182649        4.628359
 O        14.489829        1.111532       -3.926274
 H        15.142282        0.683366       -4.570315
 H        13.929748        1.826090       -4.331016
 O         5.375364        4.178136       14.197505
 H         6.196652        3.617213       14.271835
 H         4.838810        3.535937       13.620005
 O        12.657402        1.563231        1.600896
 H        13.203594        0.820823        1.763660
 H        12.443596        1.591301        0.630250
 O        10.746640        7.901219        6.980941
 H        10.831027        8.212936        7.929488
 H        10.589966        8.732839        6.418685
 O         8.435774       -1.211294        3.748357
 H         7.725732       -1.163754        4.382247
 H         8.671823       -0.328712        3.345989
 O         9.325567       14.350648       -1.977895
 H         9.453757       14.687040       -2.907952
 H         9.151296       15.210881       -1.562309
 O         7.698669       10.759050        5.684190
 H         7.976858       10.272457        4.851576
 O        -1.285866       12.765409       10.955818
 H        -2.189531       13.118265       10.866355
 H        -1.367635       11.951728       11.545031
 O         9.180678        8.726825        3.070879
 H         8.281169        8.804153        2.693394
 H         9.688320        9.573739        3.080997
 O         6.128480       -6.988642        2.822037
 H         5.799805       -7.828648        2.478231
 H         6.101966       -7.038611        3.822020
 O         3.382622       15.293715        7.446661
 H         3.670351       15.358639        6.503417
 H         2.673858       14.660497        7.370863
 O         6.220589        1.164026       11.849291
 H         6.216472        0.758846       10.972053
 H         7.140271        1.391615       12.075459
 O        12.030482        4.624378        1.161118
 H        12.796689        4.208224        1.551524
 H        11.410855        3.886974        1.001804
 O         8.776976       11.544037       19.821205
 H         7.752143       11.478169       19.682634
 H         9.139946       12.382425       19.765156
 O         0.012061       16.570223       12.974033
 H        -0.352133       16.926043       13.771951
 H         0.306999       15.677613       13.094082
 O        21.413473        8.067913        1.689389
 H        21.311771        7.935445        0.721188
 H        21.266596        7.162456        2.044262
 O         0.425085        2.421389       12.947055
 H        -0.118756        2.285988       13.714549
 H         1.064958        2.999423       13.408409
 O        13.387839        2.696496        5.447048
 H        12.927072        2.307829        6.216744
 H        12.862505        3.449487        5.196614
 O        11.936193       13.436849       -1.167356
 H        11.735527       13.934670       -1.968735
 H        11.053893       13.074941       -0.975969
 O        12.342907       -2.458148        5.127941
 H        12.802025       -3.303216        5.033031
 H        11.640953       -2.447104        4.439826
 O        12.867347       15.812951       10.825814
 H        12.391344       16.597506       10.982586
 H        13.728692       16.136110       10.501542
 O        17.490732        7.118591        0.801297
 H        18.299540        7.611748        1.082053
 H        16.752108        7.710447        0.783814
 O         0.531774       12.311866        4.449440
 H         1.240217       11.964340        5.000596
 H         0.011479       11.589349        4.046118
 O        -1.347548       15.368340        9.478481
 H        -1.573939       14.672238       10.127043
 H        -0.974657       14.865688        8.743814
 O         3.178056        7.444771       -4.269603
 H         3.080181        7.059253       -5.188285
 H         4.080645        7.610480       -3.990624
 O        -0.666240       16.907887        5.441658
 H         0.021912       16.748487        4.812880
 H        -1.427358       17.337555        5.034817
 O         6.382865       15.520146       13.908153
 H         5.724981       15.756349       13.256758
 H         6.760146       16.363352       14.199555
 O        12.929110        4.480529       -1.807058
 H        12.524205        4.134366       -2.624822
 H        13.105958        3.727801       -1.266034
 O        15.029778        5.657257        0.636557
 H        14.593674        5.422198       -0.210069
 H        14.733238        6.544740        0.826473
 O        16.828894       10.516683        2.170251
 H        16.198786        9.885719        1.820461
 H        16.896614       11.236009        1.558110
 O        12.636301        3.620142       12.587662
 H        12.016187        2.874010       12.591165
 H        12.620948        4.112822       11.791885
 O         1.741897        8.477423        3.427133
 H         2.639278        8.831071        3.245918
 H         1.067953        9.147799        3.309352
 O         0.069137        6.631531        9.593924
 H         0.338624        6.684331        8.662434
 H         0.852070        7.034804       10.034884
 O         4.301147        2.968062       11.605944
 H         4.862066        3.767541       11.478570
 H         4.910640        2.235962       11.912632
 O         5.435011        5.504321        7.677009
 H         6.000943        6.145662        7.151201
 H         4.507632        5.800036        7.514365
 O         8.811561       11.821222       -4.643730
 H         8.873032       12.427809       -3.860813
 H         9.321182       11.059006       -4.423907
 O         1.497308        5.491061        7.177229
 H         1.045894        4.663870        6.985372
 H         2.099385        5.697057        6.439926
 O        15.539289        2.056373        0.889794
 H        15.914684        2.735113        0.303883
 H        16.007793        2.217360        1.722732
 O        13.037408       -0.029643        4.205312
 H        12.230578        0.415992        3.918379
 H        12.734310       -0.867275        4.691423
 O         7.295987       12.136906       15.390548
 H         6.618479       12.083282       16.033194
 H         6.889738       11.945528       14.520291
 O         7.182621        3.193704       10.111992
 H         7.314818        4.148181        9.996704
 H         7.663963        2.887201       10.847917
 O        19.955490        5.825016       -6.545330
 H        20.312977        6.287803       -7.344082
 H        19.244499        5.208244       -6.873572
 O         4.542772       -2.500212       -0.321448
 H         5.416343       -2.690531       -0.708268
 H         3.902639       -3.161461       -0.672764
 O         1.564342        3.629374        9.872790
 H         0.691187        3.596894       10.263492
 H         2.099618        2.932534       10.330798
 O         8.422695        0.923151       13.373404
 H         8.149958        1.267448       14.196763
 H         9.264941        0.366247       13.486073
 O         7.218654        3.231238        6.988492
 H         8.049245        3.203642        7.489467
 H         6.782967        4.065586        7.305113
 O        20.234997        1.994745        3.295706
 H        19.713085        1.210221        3.083222
 H        20.317982        1.757816        4.228063
 O         6.029302       13.538383        4.279634
 H         5.915895       14.003592        5.118498
 H         5.431911       12.732830        4.348350
 O         4.132443        3.217020        8.245397
 H         3.310086        3.709458        8.258323
 H         4.897649        3.813236        8.233591
 O        -1.005139        3.253074       -1.706918
 H        -0.693864        4.114795       -1.399358
 H        -1.914428        3.332413       -1.982143
 O        13.694492        7.695678        4.079693
 H        12.941502        7.459300        3.524705
 H        13.537953        8.538956        4.503431
 O         3.323764       18.629478        6.092721
 H         3.375676       19.281660        6.852035
 H         3.470812       17.731131        6.433517
 O         7.333512        2.197080       15.549248
 H         6.815973        1.938841       16.394955
 H         8.102738        2.782160       15.741010
 O         8.988844        3.495879       18.524696
 H         8.592831        4.239424       18.959061
 H         9.724963        3.211816       19.096962
 O         3.842265        5.271224        2.506102
 H         4.440280        4.895829        3.202084
 H         3.906669        4.629894        1.773492
 O        21.730154       15.695528        2.555757
 H        22.159664       14.928080        3.040684
 H        21.344851       15.299819        1.721981
 O         8.847268        5.354026        3.586776
 H         9.217200        6.199315        3.233795
 H         8.624286        5.598552        4.541352
 O        15.320054        5.036403       -4.331172
 H        14.876485        5.510823       -5.073570
 H        15.609479        4.133106       -4.501300
 O        11.401910       13.491498        2.573999
 H        11.823712       13.291899        1.759089
 H        10.547595       13.810863        2.284606
 O         2.776449       10.807887        1.134781
 H         3.534894       11.211677        0.717273
 H         2.459517       10.223837        0.412405
 O        19.141052       14.646206        3.592062
 H        18.482620       13.925109        3.846265
 H        19.994234       14.077424        3.591831
 O        13.192481        1.647672        9.557222
 H        13.087554        1.089728        8.770636
 H        13.407085        2.517435        9.245850
 O         3.179107       11.686896        3.660190
 H         3.543766       12.380941        3.051163
 H         2.946847       10.940018        3.107350
 O         9.300191       13.724469        5.244545
 H         9.725204       12.878304        5.124729
 H         8.319205       13.543679        5.418591
 O        16.086987       12.125235       -1.381560
 H        16.121778       11.158124       -1.306094
 H        16.913042       12.434970       -1.005085
 O        17.395060        5.641094       15.631967
 H        17.253284        6.166818       16.397516
 H        17.161102        6.215878       14.825114
 O         9.114026       15.148443       12.242958
 H         9.832599       15.585007       11.776415
 H         8.412127       15.880686       12.277722
 O         1.946379       21.801855       13.312795
 H         2.654866       21.705179       12.625504
 H         1.497180       22.690596       13.158981
 O         1.195005        0.799834        7.952161
 H         0.568062        0.514015        7.212745
 H         1.691900       -0.021727        8.111028
 O        11.238629       -0.805219        8.615778
 H        11.698068       -1.610907        8.807793
 H        10.482409       -0.672458        9.226984
 O        11.659764       11.644316        6.707430
 H        12.281659       11.203316        7.340849
 H        11.660382       12.551477        6.914812
 O        15.242981       -2.253090       -0.070553
 H        14.984845       -2.429528        0.903382
 H        15.124893       -3.041912       -0.577229
 O        16.765343       16.029457        2.243596
 H        16.333935       16.855219        1.932214
 H        16.098804       15.499101        2.666437
 O         1.155446       13.586235       17.788471
 H         1.126966       14.511346       17.896944
 H         1.473126       13.192126       18.614868
 O         3.260870        5.371124       -1.093432
 H         2.293275        5.365220       -1.008639
 H         3.570974        4.911735       -1.890414
 O        12.328795       10.533253        4.113896
 H        11.353985       10.495883        4.069322
 H        12.445571       10.886006        5.043530
 O         6.360422       14.588696       10.178680
 H         6.245073       13.762670        9.671287
 H         6.571194       14.319903       11.061496
 O        14.336808        7.197714       -2.435766
 H        14.276482        6.219893       -2.611145
 H        13.686672        7.387164       -1.725738
 O        17.815609        5.169105        3.924466
 H        18.676676        5.602617        3.699613
 H        18.036903        4.210402        4.097111
 O        11.530314        6.933998       12.639846
 H        12.284601        6.688681       13.128393
 H        11.681442        6.495387       11.790579
 O        -0.011890        3.027611        6.341833
 H        -0.772482        2.508246        6.648088
 H         0.762587        2.470177        6.238205
 O         4.723639       -4.144096       12.739307
 H         4.229152       -4.673827       13.362015
 H         4.909836       -3.234207       13.018607
 O         9.455597       16.761377       16.386084
 H        10.172866       16.373787       16.880699
 H         8.760547       17.058376       17.054411
 O         6.436715       22.285418       -0.314955
 H         5.922544       21.765610        0.318362
 H         6.326061       21.719393       -1.129489
 O        -1.660281        2.139175        3.818760
 H        -1.445018        2.360857        4.744383
 H        -2.594941        2.095780        3.808465
 O        12.110599       15.947599       17.237686
 H        12.640600       16.528116       16.680321
 H        11.975039       15.062257       16.931499
 O         7.133709        0.246816        6.706177
 H         8.033142        0.126049        6.517408
 H         7.086879        1.166564        7.051257
 O        -0.836413        0.098430       15.708035
 H        -1.049143       -0.751123       16.059244
 H        -1.328423        0.693340       16.204603
 O         9.857996        2.635132        5.337878
 H        10.272538        1.963730        5.911534
 H         8.907603        2.730107        5.497590
 O        -0.814308        1.581271       -6.520243
 H        -0.201406        1.865080       -5.741346
 H        -0.484639        0.767923       -6.961411
 O        11.483026        7.338936        2.340473
 H        11.532777        6.361113        2.074574
 H        10.594185        7.749510        2.258886
 O        13.688087       10.206113        8.628939
 H        14.362027        9.670595        9.108994
 H        13.022799        9.489307        8.549892
 O         5.553172       12.279040        1.543239
 H         5.889943       11.423364        1.847887
 H         6.266260       12.926621        1.529550
 O         7.662591        6.424912        6.271517
 H         8.473191        6.821330        6.612713
 H         7.265518        7.268276        5.887787
 O         4.336951        7.943470       -1.497932
 H         4.949978        7.670872       -2.206392
 H         3.903580        7.102032       -1.193386
 O         8.783587       12.709983        8.398294
 H         8.263896       11.969090        8.762941
 H         9.076989       12.200422        7.616696
 O        14.649277       14.074683        2.449157
 H        14.892463       13.416571        3.128072
 H        14.154774       14.715441        2.946933
 O         6.427353       14.820187        6.741114
 H         7.265831       14.968822        7.282884
 H         5.788189       15.475853        7.092254
 O        18.508581       14.881502       15.044694
 H        19.163996       15.602858       14.879028
 H        18.087429       14.990591       15.874557
 O        14.110452       13.289433        8.074667
 H        14.590293       12.520957        7.720614
 H        13.392239       13.032356        8.649611
 O        10.790462       19.175766       10.536952
 H        10.391393       18.843254       11.365556
 H        11.672193       18.764788       10.542863
 O        10.547524        5.031051        7.533828
 H         9.808183        5.237766        8.109808
 H        10.281716        5.371188        6.694482
 O         0.634490        8.427644        6.970617
 H         1.431080        7.974986        6.702289
 H        -0.162070        7.855347        6.862512
 O        10.936108       10.769912       -0.370075
 H        10.052740       10.399344       -0.326235
 H        11.527680       10.093379        0.034845
 O         0.481121       -3.548880        7.665756
 H         0.697279       -3.854892        8.587329
 H         0.925715       -4.271448        7.150256
 O         8.238673       10.003657       16.758812
 H         7.516519       10.250954       16.189980
 H         7.890316        9.951767       17.685118
 O         6.177440        0.794126        3.816726
 H         5.361913        0.582468        4.250913
 H         6.512372        1.501044        4.361146
 O        15.539067       10.389516        5.813581
 H        16.377163       10.497625        6.218951
 H        15.682204        9.564053        5.362935
 O        10.624131        9.640412       -3.367701
 H        10.737829        9.786316       -2.458060
 H        10.753046        8.698776       -3.472760
 O        -3.235169        7.611233        7.663074
 H        -2.818030        6.760329        7.829466
 H        -3.660675        7.599616        6.777086
 O        -0.709519        9.081482       15.681393
 H        -1.068844        8.376636       15.132948
 H         0.275260        9.029529       15.610256
 O        11.698364       12.644319       12.920416
 H        11.455026       12.702096       12.009984
 H        11.950336       13.545054       13.070121
 O        11.079334       17.620949       13.618913
 H        11.588516       16.788631       13.653668
 H        11.164318       18.060995       14.502932
 O         1.201099       11.963336       13.144899
 H         0.304266       11.561563       13.236939
 H         1.725597       11.244844       12.779044
 O         3.589153        6.755684        5.614088
 H         3.418388        6.487451        4.701263
 H         4.491401        7.108051        5.738651
 O        11.559294        7.094723       -0.669077
 H        11.973971        6.949963        0.206416
 H        10.665027        7.517895       -0.610348
 O        15.187269        4.563201        9.662408
 H        15.756123        3.809347        9.992434
 H        15.838691        4.972935        8.988998
 O         1.894300        9.191326       -2.137829
 H         2.029431        8.570834       -2.886860
 H         2.332311       10.015624       -2.251689
 O        14.911788       13.557002       13.666667
 H        14.801462       13.312048       14.570839
 H        15.703863       13.070521       13.377664
 O        12.421617       22.148052       10.185602
 H        11.995345       21.507267        9.621083
 H        13.342365       22.237700        9.932426
 O        14.604388        7.768661       -6.169492
 H        15.331789        7.416003       -6.689318
 H        13.767984        7.775144       -6.641948
 O         7.754073       14.425626        1.276005
 H         7.211988       15.085553        0.842969
 H         7.863223       14.631758        2.195896
 O        14.462286        5.033076        3.344486
 H        15.312961        4.613987        3.131285
 H        14.572515        5.989648        3.066401
 O         2.113593       15.694832       11.432311
 H         2.311946       16.205486       12.237916
 H         1.634638       16.351166       10.893470
 O         1.396102       12.948219       10.304772
 H         1.938865       13.700521       10.427142
 H         0.651011       13.154294       10.930016
 O         2.561625        9.271074        9.532980
 H         2.595083        9.861459       10.316420
 H         2.852671        9.731923        8.709457
 O         0.763557        4.234657        1.450557
 H         1.619368        4.691458        1.516946
 H         0.171166        4.992466        1.453264
 O         9.131389        4.157452       12.697637
 H         8.262689        4.345453       12.306028
 H         9.452456        3.336930       12.252398
 O        11.765125        5.223165        4.926010
 H        11.961858        6.084807        5.063958
 H        11.311557        5.232263        4.047021
 O        14.215332        8.971256        0.673452
 H        13.827957        9.760549        1.083206
 H        14.205064        9.139870       -0.275627
 O        19.363178        1.961148       -0.666466
 H        19.066971        1.033104       -0.444671
 H        18.584005        2.582452       -0.540766
 O        15.168612        5.574298        6.750831
 H        14.296874        5.301374        6.430895
 H        15.729880        5.356399        6.010463
 O         0.199734        7.409934       13.358915
 H        -0.081868        6.969427       12.546782
 H        -0.284376        8.243593       13.224169
 O         9.557559        2.325831        8.097487
 H        10.125504        3.101943        7.963620
 H         9.679670        2.091178        9.018016
 O        21.462246        3.281023        0.633889
 H        20.907692        2.538554        0.255828
 H        22.154449        2.679274        1.021546
 O        10.115405       -0.254621        5.769313
 H         9.565177       -0.880413        5.281585
 H        10.685263       -0.730825        6.421602
 O         3.675350       10.504386       12.543421
 H         4.031766       11.012744       11.811798
 H         4.090861        9.632257       12.475668
 O         6.522427       11.511757       10.468741
 H         7.148807       11.377944       11.235478
 H         5.942290       10.740383       10.438445
 O         2.770215       11.998630       15.330980
 H         2.195854       12.391484       16.018682
 H         2.348553       12.194618       14.472027
 O        14.038764       11.867260        0.631499
 H        13.599231       12.159870       -0.198160
 H        15.008206       11.997735        0.452560
 O         5.691886       10.007761       14.657859
 H         5.848199        9.392254       13.934781
 H         4.731629       10.092255       14.776750
 O         9.923817       17.755140        2.507339
 H        10.762270       17.349665        2.499525
 H         9.879475       18.228378        3.358811
 O        11.169546       13.094728        9.687957
 H        11.055671       13.908031       10.211887
 H        10.331598       12.929590        9.211573
 O         5.007147        0.668914        8.869257
 H         4.072617        0.598888        9.234834
 H         5.060176        1.339406        8.164705
 O        15.538386       10.355201       12.738638
 H        14.611769       10.590258       12.851923
 H        15.522908        9.646243       12.097621
 O         9.391270       21.353905       15.835560
 H         9.431421       21.689259       16.777571
 H         9.905046       21.842476       15.191937
 O        11.068455       18.932091       15.942823
 H        10.690085       19.826254       15.980461
 H        10.324265       18.403446       16.319832
 O         6.152042        6.674323        3.299966
 H         6.981757        6.244453        3.060609
 H         6.323132        7.406845        3.894029
 O         7.004773       18.342382       18.144266
 H         7.770418       18.876274       18.475231
 H         6.520127       18.059244       18.930109
